Version 4
SHEET 1 5384 1444
WIRE 32 -512 -160 -512
WIRE 192 -512 32 -512
WIRE 608 -512 192 -512
WIRE 736 -512 608 -512
WIRE 768 -512 736 -512
WIRE 1120 -512 768 -512
WIRE 192 -480 192 -512
WIRE 736 -480 736 -512
WIRE -160 -464 -160 -512
WIRE 1120 -464 1120 -512
WIRE 1312 -464 1120 -464
WIRE 1312 -448 1312 -464
WIRE 736 -384 736 -400
WIRE 768 -384 768 -512
WIRE 1120 -384 1120 -464
WIRE 1168 -384 1120 -384
WIRE 192 -368 192 -400
WIRE 608 -368 608 -512
WIRE 1120 -368 1120 -384
WIRE -160 -336 -160 -384
WIRE 32 -320 32 -512
WIRE 1008 -320 992 -320
WIRE 2352 -320 2288 -320
WIRE 2560 -320 2496 -320
WIRE 2800 -320 2560 -320
WIRE 768 -304 736 -304
WIRE 784 -304 768 -304
WIRE 832 -304 816 -304
WIRE 1312 -304 1312 -368
WIRE 1312 -304 1248 -304
WIRE 1328 -304 1312 -304
WIRE 1472 -304 1392 -304
WIRE 1664 -304 1552 -304
WIRE 1728 -304 1664 -304
WIRE 1776 -304 1728 -304
WIRE 1936 -304 1920 -304
WIRE 2000 -304 1936 -304
WIRE 2032 -304 2000 -304
WIRE 2112 -304 2096 -304
WIRE 2208 -304 2192 -304
WIRE 2272 -304 2208 -304
WIRE 2288 -304 2288 -320
WIRE 2288 -304 2272 -304
WIRE 2560 -304 2560 -320
WIRE 208 -288 192 -288
WIRE 544 -288 512 -288
WIRE 608 -288 592 -288
WIRE 672 -288 608 -288
WIRE 1024 -288 992 -288
WIRE 1120 -288 1088 -288
WIRE 1184 -288 1120 -288
WIRE 1664 -288 1664 -304
WIRE 1936 -288 1936 -304
WIRE 2208 -288 2208 -304
WIRE 672 -256 672 -288
WIRE 1184 -256 1184 -288
WIRE -64 -240 -96 -240
WIRE 32 -240 0 -240
WIRE 128 -240 32 -240
WIRE -96 -224 -96 -240
WIRE 800 -208 736 -208
WIRE 880 -208 800 -208
WIRE 1280 -208 1248 -208
WIRE 1312 -208 1280 -208
WIRE 288 -192 192 -192
WIRE 32 -112 32 -160
WIRE -96 -48 -96 -64
WIRE 240 0 224 0
WIRE 336 0 304 0
WIRE 352 0 336 0
WIRE 448 0 416 0
WIRE 464 0 448 0
WIRE 544 0 528 0
WIRE 608 0 544 0
WIRE 752 0 688 0
WIRE 896 0 832 0
WIRE 1008 0 1008 -320
WIRE 1008 0 976 0
WIRE 1760 0 1744 0
WIRE 608 16 608 0
WIRE 48 64 16 64
WIRE 224 64 224 0
WIRE 224 64 128 64
WIRE 224 96 224 64
WIRE 240 96 224 96
WIRE 336 96 336 0
WIRE 336 96 320 96
WIRE 352 96 336 96
WIRE 448 96 448 0
WIRE 448 96 432 96
WIRE 544 96 544 0
WIRE 544 96 528 96
WIRE 224 112 224 96
WIRE 336 112 336 96
WIRE 448 112 448 96
WIRE 544 112 544 96
FLAG 224 176 0
FLAG 336 176 0
FLAG 448 176 0
FLAG 544 176 0
FLAG 688 64 0
FLAG 832 64 0
FLAG -96 -48 0
FLAG -160 -336 0
FLAG 32 -112 0
FLAG 192 -48 0
FLAG 288 -112 0
FLAG 352 -224 0
FLAG 432 -224 0
FLAG 1008 64 0
FLAG 608 80 0
FLAG 512 -224 0
FLAG 608 -208 0
FLAG 736 -128 0
FLAG 880 -144 0
FLAG 800 -128 0
FLAG 1248 -128 0
FLAG 1120 -208 0
FLAG 1312 -144 0
FLAG 1184 -288 Q1B
FLAG 1280 -208 Q1E
FLAG 1472 -224 0
FLAG 1552 -224 0
FLAG 1760 0 test
FLAG 1760 -80 0
FLAG 1664 -224 0
FLAG 1728 -224 0
FLAG 1936 -224 0
FLAG 2000 -224 0
FLAG 2496 -256 0
FLAG 2560 -160 0
FLAG 2800 -240 0
FLAG 544 -368 0
FLAG 896 -224 0
FLAG 832 -224 0
FLAG 2208 -224 0
FLAG 2272 -224 0
SYMBOL AD9850 -64 64 R180
WINDOW 39 -103 44 Left 2
SYMATTR SpiceLine FREQ=19.39Meg
SYMATTR InstName U1
SYMBOL cap 208 112 R0
SYMATTR InstName C1
SYMATTR Value 22p
SYMBOL cap 320 112 R0
SYMATTR InstName C2
SYMATTR Value 33p
SYMBOL cap 432 112 R0
SYMATTR InstName C3
SYMATTR Value 22p
SYMBOL cap 528 112 R0
WINDOW 3 23 56 Left 2
SYMATTR Value 22p
SYMATTR InstName C4
SYMBOL ind 336 112 M270
WINDOW 0 53 62 VTop 2
WINDOW 3 57 59 VBottom 2
SYMATTR InstName L1
SYMATTR Value 470n
SYMBOL ind 448 112 M270
WINDOW 0 57 54 VTop 2
WINDOW 3 56 54 VBottom 2
SYMATTR InstName L2
SYMATTR Value 390n
SYMBOL ind2 544 112 M270
WINDOW 0 52 52 VTop 2
WINDOW 3 51 45 VBottom 2
SYMATTR InstName L3
SYMATTR Value 390n
SYMATTR Type ind
SYMBOL cap 304 -16 R90
WINDOW 0 -31 30 VBottom 2
WINDOW 3 -26 28 VTop 2
SYMATTR InstName C5
SYMATTR Value 1p
SYMBOL cap 416 -16 R90
WINDOW 0 -23 26 VBottom 2
WINDOW 3 -22 28 VTop 2
SYMATTR InstName C6
SYMATTR Value 5.6p
SYMBOL cap 528 -16 R90
WINDOW 0 -33 31 VBottom 2
WINDOW 3 -29 31 VTop 2
SYMATTR InstName C7
SYMATTR Value 4.7p
SYMBOL ind 592 16 R270
WINDOW 0 32 56 VTop 2
WINDOW 3 5 56 VBottom 2
SYMATTR InstName L8
SYMATTR Value 120n
SYMBOL cap 624 80 R180
WINDOW 0 27 54 Left 2
WINDOW 3 24 8 Left 2
SYMATTR InstName C12
SYMATTR Value 1500p
SYMBOL ind 736 16 R270
WINDOW 0 32 56 VTop 2
WINDOW 3 5 56 VBottom 2
SYMATTR InstName L9
SYMATTR Value 130n
SYMBOL cap 672 0 R0
SYMATTR InstName C13
SYMATTR Value 2000p
SYMBOL voltage -96 -160 R0
WINDOW 123 0 0 Left 0
WINDOW 39 0 0 Left 0
WINDOW 3 -773 -41 Left 2
SYMATTR Value PULSE(0.3 3.1 0 325p 225p {1/125Meg/2} {1/125Meg})
SYMATTR InstName V5
SYMBOL npn 128 -288 R0
WINDOW 0 35 41 Left 2
SYMATTR InstName Q4
SYMATTR Value DI_MMBTH10
SYMBOL res 208 -272 R180
WINDOW 0 36 76 Left 2
WINDOW 3 36 40 Left 2
SYMATTR InstName R18
SYMATTR Value 150
SYMBOL voltage -160 -480 R0
WINDOW 123 0 0 Left 0
WINDOW 39 0 0 Left 0
SYMATTR InstName V6
SYMATTR Value 5
SYMBOL cap 0 -256 R90
WINDOW 0 0 32 VBottom 2
WINDOW 3 32 32 VTop 2
SYMATTR InstName C23
SYMATTR Value 470p
SYMBOL res 16 -256 R0
SYMATTR InstName R15
SYMATTR Value 1.2k
SYMBOL res 16 -336 R0
SYMATTR InstName R17
SYMATTR Value 1.8k
SYMBOL cap 176 -192 R0
SYMATTR InstName C25
SYMATTR Value 100p
SYMBOL res 176 -144 R0
SYMATTR InstName R12
SYMATTR Value 0
SYMBOL res -80 -128 R180
WINDOW 0 36 76 Left 2
WINDOW 3 36 40 Left 2
SYMATTR InstName R21
SYMATTR Value 75
SYMBOL cap 272 -304 R90
WINDOW 0 0 32 VBottom 2
WINDOW 3 32 32 VTop 2
SYMATTR InstName C24
SYMATTR Value 470p
SYMATTR SpiceLine Rser={C_RES}
SYMBOL res 272 -208 R0
SYMATTR InstName R22
SYMATTR Value 100
SYMBOL ind 256 -272 R270
WINDOW 0 32 56 VTop 2
WINDOW 3 5 56 VBottom 2
SYMATTR InstName L18
SYMATTR Value 33n
SYMBOL ind 336 -272 R270
WINDOW 0 32 56 VTop 2
WINDOW 3 5 56 VBottom 2
SYMATTR InstName L19
SYMATTR Value 120n
SYMBOL cap 368 -224 R180
WINDOW 0 24 56 Left 2
WINDOW 3 24 8 Left 2
SYMATTR InstName C31
SYMATTR Value 36p
SYMATTR SpiceLine Rser={C_RES}
SYMBOL cap 416 -288 R0
SYMATTR InstName C32
SYMATTR Value 47p
SYMATTR SpiceLine Rser={C_RES}
SYMBOL ind 880 16 R270
WINDOW 0 32 56 VTop 2
WINDOW 3 5 56 VBottom 2
SYMATTR InstName L6
SYMATTR Value 120n
SYMBOL cap 816 0 R0
SYMATTR InstName C10
SYMATTR Value 2000p
SYMBOL cap 992 0 R0
SYMATTR InstName C28
SYMATTR Value 2000p
SYMBOL mixer 944 -304 R0
SYMATTR InstName X1
SYMBOL ind2 416 -272 R270
WINDOW 0 32 56 VTop 2
WINDOW 3 5 56 VBottom 2
SYMATTR InstName L4
SYMATTR Value 96n
SYMATTR Type ind
SYMBOL cap 528 -224 R180
WINDOW 0 24 56 Left 2
WINDOW 3 24 8 Left 2
SYMATTR InstName C8
SYMATTR Value 13p
SYMATTR SpiceLine Rser={C_RES}
SYMBOL npn 672 -304 R0
WINDOW 0 35 41 Left 2
SYMATTR InstName Q1
SYMATTR Value DI_MMBTH10
SYMBOL cap 608 -304 R90
WINDOW 0 0 32 VBottom 2
WINDOW 3 32 32 VTop 2
SYMATTR InstName C9
SYMATTR Value 470p
SYMATTR SpiceLine Rser={C_RES}
SYMBOL res 752 -288 R180
WINDOW 0 36 76 Left 2
WINDOW 3 36 40 Left 2
SYMATTR InstName R3
SYMATTR Value 0
SYMBOL res 592 -384 R0
SYMATTR InstName R4
SYMATTR Value 0.8k
SYMBOL res 592 -304 R0
SYMATTR InstName R5
SYMATTR Value 1.2k
SYMBOL res 720 -224 R0
SYMATTR InstName R2
SYMATTR Value 47
SYMBOL cap 864 -208 R0
SYMATTR InstName C14
SYMATTR Value 0.022µ
SYMBOL cap 832 -320 R90
WINDOW 0 0 32 VBottom 2
WINDOW 3 41 40 VTop 2
SYMATTR InstName C11
SYMATTR Value 470p
SYMBOL ind 176 -496 R0
SYMATTR InstName L21
SYMATTR Value 270n
SYMBOL ind 720 -496 R0
SYMATTR InstName L22
SYMATTR Value 270n
SYMBOL res 784 -224 R0
SYMATTR InstName R39
SYMATTR Value 30
SYMBOL npn 1184 -304 R0
WINDOW 0 35 41 Left 2
SYMATTR InstName Q9
SYMATTR Value DI_MMBTH10
SYMBOL res 1104 -384 R0
SYMATTR InstName R42
SYMATTR Value 470
SYMBOL res 1232 -224 R0
SYMATTR InstName R43
SYMATTR Value 68
SYMBOL cap 1296 -208 R0
SYMATTR InstName C42
SYMATTR Value 0.022µ
SYMBOL cap 1392 -320 R90
WINDOW 0 0 32 VBottom 2
WINDOW 3 32 32 VTop 2
SYMATTR InstName C43
SYMATTR Value 470p
SYMBOL cap 1088 -304 R90
WINDOW 0 0 32 VBottom 2
WINDOW 3 32 32 VTop 2
SYMATTR InstName C47
SYMATTR Value 470p
SYMBOL ind 1568 -416 R0
WINDOW 3 27 67 Left 2
SYMATTR Value 0.1n
SYMATTR InstName L15
SYMBOL res 1104 -304 R0
SYMATTR InstName R44
SYMATTR Value 510
SYMBOL ind 1296 -464 R0
SYMATTR InstName L17
SYMATTR Value 4.7µ
SYMBOL ind2 1456 -320 R0
WINDOW 0 36 74 Left 2
WINDOW 3 -21 120 Left 2
SYMATTR InstName L23
SYMATTR Value 160n
SYMATTR Type ind
SYMBOL ind2 1568 -208 R180
WINDOW 0 36 80 Left 2
WINDOW 3 -51 -9 Left 2
SYMATTR InstName L24
SYMATTR Value 71.3n
SYMATTR Type ind
SYMBOL voltage 1760 16 R180
WINDOW 123 24 44 Left 2
WINDOW 39 0 0 Left 0
WINDOW 0 36 76 Left 2
SYMATTR Value2 AC 1
SYMATTR InstName V2
SYMATTR Value ""
SYMBOL cap 1648 -288 R0
SYMATTR InstName C71
SYMATTR Value 150p
SYMATTR SpiceLine Rser=.1
SYMBOL ind 1712 -320 R0
SYMATTR InstName L38
SYMATTR Value 7.5n
SYMATTR SpiceLine Rser=.1
SYMBOL cap 1920 -288 R0
SYMATTR InstName C72
SYMATTR Value 240p
SYMATTR SpiceLine Rser=.1
SYMBOL ind 1984 -320 R0
SYMATTR InstName L39
SYMATTR Value 4.7n
SYMATTR SpiceLine Rser=.1
SYMBOL cap 1840 -320 R90
WINDOW 0 0 32 VBottom 2
WINDOW 3 32 32 VTop 2
SYMATTR InstName C73
SYMATTR Value 3.85p
SYMATTR SpiceLine Rser=.1
SYMBOL ind 1824 -288 R270
WINDOW 0 32 56 VTop 2
WINDOW 3 5 56 VBottom 2
SYMATTR InstName L40
SYMATTR Value 270n
SYMATTR SpiceLine Rser=.1
SYMBOL ind 2096 -288 R270
WINDOW 0 32 56 VTop 2
WINDOW 3 5 56 VBottom 2
SYMATTR InstName L41
SYMATTR Value 270n
SYMATTR SpiceLine Rser=1
SYMBOL cap 2096 -320 R90
WINDOW 0 0 32 VBottom 2
WINDOW 3 32 32 VTop 2
SYMATTR InstName C74
SYMATTR Value 3.85p
SYMATTR SpiceLine Rser=.1
SYMBOL cap 2416 -336 R90
WINDOW 0 0 32 VBottom 2
WINDOW 3 32 32 VTop 2
SYMATTR InstName C15
SYMATTR Value 470p
SYMATTR SpiceLine Rser=.1
SYMBOL ind 2400 -304 R270
WINDOW 0 32 56 VTop 2
WINDOW 3 5 56 VBottom 2
SYMATTR InstName L5
SYMATTR Value 150n
SYMATTR SpiceLine Rser=.1
SYMBOL cap 2480 -320 R0
SYMATTR InstName C16
SYMATTR Value 3.3p
SYMATTR SpiceLine Rser=.1
SYMBOL cap 2544 -224 R0
SYMATTR InstName C17
SYMATTR Value 1n
SYMBOL res 2544 -320 R0
SYMATTR InstName R1
SYMATTR Value 680
SYMBOL res 2784 -336 R0
SYMATTR InstName R6
SYMATTR Value 40
SYMBOL res 752 -400 R0
SYMATTR InstName R8
SYMATTR Value 75k
SYMBOL res 144 48 R90
WINDOW 0 0 56 VBottom 2
WINDOW 3 32 56 VTop 2
SYMATTR InstName R7
SYMATTR Value 50
SYMBOL res 528 -384 R0
SYMATTR InstName R9
SYMATTR Value 50k
SYMBOL voltage 896 -320 R0
WINDOW 123 0 0 Left 0
WINDOW 39 24 44 Left 2
SYMATTR SpiceLine Rser=50
SYMATTR InstName V1
SYMATTR Value SINE(0 200m 125Meg)
SYMBOL res 816 -320 R0
SYMATTR InstName R10
SYMATTR Value 50
SYMBOL cap 2192 -288 R0
SYMATTR InstName C18
SYMATTR Value 150p
SYMATTR SpiceLine Rser=.1
SYMBOL ind 2256 -320 R0
SYMATTR InstName L7
SYMATTR Value 7.5n
SYMATTR SpiceLine Rser=.1
TEXT -608 184 Left 2 !.tran 0 5u 2.5u 0.0000000001
TEXT 752 -56 Left 2 ;LP filter
TEXT -1448 688 Left 2 !.model idealDiode D(Ron=0 Roff=100Meg Vfwd=0)
TEXT 408 -136 Left 2 !.param c_res=0.01
TEXT 344 -352 Left 2 ;LP filter
TEXT 1216 24 Left 2 !.model my2N2222 NPN(IS=1E-14 VAF=100 BF={beta} IKF=0.3 XTB=1.5 BR=3 CJC=8E-12 CJE=25E-12 TR=100E-9 TF=400E-12 ITF=1 VTF=2 XTF=3 RB=10 RC=.3 RE=.2 Vceo=30 Icrating=800m mfg=NXP)
TEXT 1224 56 Left 2 ;.step param beta 120 300 175
TEXT 1216 96 Left 2 !.MODEL DI_MMBTH10  NPN (IS=1.26e-016 NF=1.00 BF={beta} VAF=114\n+ IKF=24.3m ISE=1.28p NE=2.00 BR=4.00 NR=1.00\n+ VAR=16.0 IKR=60.0m RE=1.51 RB=6.05 RC=0.605\n+ XTB=1.5 CJE=6.27p VJE=1.10 MJE=0.500 CJC=2.02p VJC=0.300\n+ MJC=0.300 TF=130p TR=27.4n EG=1.12 )
TEXT 1496 -320 Left 2 ;6:4
TEXT 1432 -168 Left 2 !K1 L23 L24 0.95
TEXT 888 -568 Left 2 !.meas reQ9 AVG (V(Q1B)-V(Q1E))/Ic(Q9)
TEXT 2080 -56 Left 2 !.meas reQ11 AVG (V(Q11B)-V(Q11E))/Ic(Q11)
TEXT 1192 -24 Left 2 !.param beta=200
TEXT 2744 -48 Left 2 !.meas reQ12 AVG (V(Q12B)-V(Q12E))/Ic(Q12)
TEXT 1216 264 Left 2 !* Q2SCR562F3 NPN BJT model\n* PKG: HUML2020L3,Vceo=30V,Ic=6A\n* Model Generated by ROHM\n* All Rights Reserved\n* Commercial Use or\n* Resale Restricted\n* Date: 2016/05/09\n.MODEL Q2SCR562F3 NPN\n+ IS=2.7000E-12\n+ BF=359.65\n+ VAF=47.246\n+ IKF=17.794\n+ ISE=5.1063E-12\n+ NE=1.6800\n+ BR=164.76\n+ VAR=13.821\n+ IKR=10.533\n+ ISC=5.5359E-12\n+ NC=2.3044\n+ NK=.54944\n+ RE=2.0000E-3\n+ RB=2.3516\n+ RC=35.434E-3\n+ CJE=711.58E-12\n+ VJE=.77165\n+ MJE=.37592\n+ CJC=152.75E-12\n+ VJC=.55108\n+ MJC=.39358\n+ TF=359.46E-12\n+ XTF=415.35\n+ VTF=248.34\n+ ITF=34.139\n+ TR=7.0435E-9\n+ XTB=1.5000\n+ TRE1=0.05
TEXT 8 -320 Left 2 ;was 2k
TEXT 160 -544 Left 2 ;was 0.1nH
TEXT 680 -552 Left 2 ;was 0.1nH
TEXT 808 -384 Left 2 ;was 75
TEXT 768 -104 Left 2 ;was 30k
TEXT 624 -392 Left 2 ;was 30
TEXT 568 -184 Left 2 ;changed
TEXT 1416 -136 Left 2 ;https://miguelvaca.github.io/vk3cpu/toroid.html
